

model BasicBuilder -ndm 2 -ndf 2

#These are the problem variables
#pset beta 5.462261077231849e-01   
#pset Ap 9.665784174420770e-02 
#pset An 3.528346194898871e+00 
#pset Bn 4.914497665322617e-01

# define nodes: node nodeTag x y
node 1 0 0 
node 2 7.5785 0 
node 3 7.5785 11.3329 
node 4 0 11.3329 
node 5 7.5785 22.6657 
node 6 0 22.6657 
node 7 7.5785 33.9986 
node 8 0 33.9986 
node 9 7.5785 45.3314 
node 10 0 45.3314 
node 11 7.5785 56.6643 
node 12 0 56.6643 
node 13 7.5785 67.9971 
node 14 0 67.9971 
node 15 7.5785 79.33 
node 16 0 79.33 
node 17 15.157 0 
node 18 15.157 11.3329 
node 19 15.157 22.6657 
node 20 15.157 33.9986 
# ... 115 like lines cut

# define uniaxialMaterial for rebars, uniaxialMaterial matType? $Fy $E0 $b
uniaxialMaterial Steel01 1 84.6555 29000 0.01 
uniaxialMaterial Steel01 2 83.5388 29000 0.01 
uniaxialMaterial Steel01 3 75.2574 29000 0.01 

# nDMaterial PlaneStressRebarMaterial matTag matTag_for_uniaxialMaterial angle_of_rebar 
nDMaterial PlaneStressRebarMaterial 1 1 90 
nDMaterial PlaneStressRebarMaterial 2 2 90 
nDMaterial PlaneStressRebarMaterial 3 3 0 


# define pars for PlasticDamageConcretePlaneStress
set E 4635.43;# ksi 
set nu 0.2 
set fc [expr 6.61349*0.7] ;# ksi 
set ft [expr $fc*0.25] ;# ksi 

#source parameters.tcl

set outPutFileName outputs.out 
nDMaterial PlasticDamageConcretePlaneStress 4 $E $nu $ft $fc $beta $Ap $An $Bn ;# concrete 

# nDMaterial PlaneStressLayeredMaterial matTag num_of_layers layer_1_Tag  layer_1_thickness 1 layer_2_Tag  layer_2_thickness layer_3_Tag  layer_3_thickness
nDMaterial PlaneStressLayeredMaterial 5 3 4 5.85852 1 0.0316793 3 0.0148032  
nDMaterial PlaneStressLayeredMaterial 6 3 4 5.81253 2 0.0693821 3 0.0230882  
nDMaterial PlaneStressLayeredMaterial 7 3 4 5.85852 1 0.0316793 3 0.0148032  
nDMaterial PlaneStressLayeredMaterial 8 3 4 5.81253 2 0.0693821 3 0.0230882  

# define elements: element quad eleTag i j k l thickness PlaneStress matTag
element quad 0 1 2 3 4 1 PlaneStress 6
element quad 1 4 3 5 6 1 PlaneStress 6
element quad 2 6 5 7 8 1 PlaneStress 6
element quad 3 8 7 9 10 1 PlaneStress 6
element quad 4 10 9 11 12 1 PlaneStress 6
element quad 5 12 11 13 14 1 PlaneStress 6
element quad 6 14 13 15 16 1 PlaneStress 6
element quad 7 2 17 18 3 1 PlaneStress 6
element quad 8 3 18 19 5 1 PlaneStress 6
element quad 9 5 19 20 7 1 PlaneStress 6
element quad 10 7 20 21 9 1 PlaneStress 6
element quad 11 9 21 22 11 1 PlaneStress 6
element quad 12 11 22 23 13 1 PlaneStress 6
element quad 13 13 23 24 15 1 PlaneStress 6
element quad 14 17 25 26 18 1 PlaneStress 5
element quad 15 18 26 27 19 1 PlaneStress 5
element quad 16 19 27 28 20 1 PlaneStress 5
element quad 17 20 28 29 21 1 PlaneStress 5
element quad 18 21 29 30 22 1 PlaneStress 5
element quad 19 22 30 31 23 1 PlaneStress 5
# ... 92 like lines cut

# define time series
timeSeries Constant 1 -factor 0
timeSeries Constant 2 -factor 0
timeSeries Constant 3 -factor 0
timeSeries Path 4 -dt 1 -values { 0 0.0873127 0.134938 0.1905 0.254001 0.317501 0.412751 0.381001 0.309563 0.198438 0.111125 0.0793752 0.00793752 -0.0238125 -0.0873127 -0.174625 -0.301626 -0.309563 -0.22225 -0.111125 -0.0317501 0.111125 0.317501 0.484188 0.658814 0.825502 1.02394 0.992189 0.777877 0.500064 0.198438 0.0714376 -0.0873127 -0.269876 -0.428626 -0.619126 -0.801689 -0.992189 -0.960439 -0
set nPts 208 

 # Fix The Bottom Nodes
 # pattern Plain patternTag timeSeriesTag 
pattern Plain 1 1 {
  # sp nodeTag dof value
  sp 1 1 0
  sp 1 2 0
  sp 2 1 0
  sp 2 2 0
  sp 17 1 0
  sp 17 2 0
  sp 25 1 0
  sp 25 2 0
  sp 33 1 0
  sp 33 2 0
  sp 41 1 0
  sp 41 2 0
  sp 49 1 0
  sp 49 2 0
  sp 57 1 0
  sp 57 2 0
  sp 65 1 0
  sp 65 2 0
}

 # Vertical Loads on Top, do not include weight 
pattern Plain 2 2 {
  # load nodeTag force_at_dof_1 force_at_dof_2
  load 85 0.0 -36.8672
  load 86 0.0 -36.8672
  load 93 0.0 -36.8672
  load 100 0.0 -36.8672
  load 107 0.0 -36.8672
  load 114 0.0 -36.8672
  load 121 0.0 -36.8672
  load 128 0.0 -36.8672
  load 135 0.0 -36.8672
}

 # Some Horizontal Load 
pattern Plain 3 3 {
  load 86 0.5 0.0
  load 86 0.0 0.244983
  load 135 0.5 0.0
  load 135 0.0 -0.244983
}

 # DisplacementControlAtTop 
pattern Plain 4 4 {
  sp 85 1 1
  sp 86 1 1
  sp 93 1 1
  sp 100 1 1
  sp 107 1 1
  sp 114 1 1
  sp 121 1 1
  sp 128 1 1
  sp 135 1 1
}

# add self weight

set numNodes 135 
set rho 8.60914e-05 
set g -1.0
set volumeOfWall 73770.5

pattern Plain 100 "Constant" { 
load 1 0.0 [expr ($volumeOfWall*$rho*$g)/$numNodes];#SELF-WEIGHT
load 2 0.0 [expr ($volumeOfWall*$rho*$g)/$numNodes];#SELF-WEIGHT
load 3 0.0 [expr ($volumeOfWall*$rho*$g)/$numNodes];#SELF-WEIGHT
load 4 0.0 [expr ($volumeOfWall*$rho*$g)/$numNodes];#SELF-WEIGHT
load 5 0.0 [expr ($volumeOfWall*$rho*$g)/$numNodes];#SELF-WEIGHT
load 6 0.0 [expr ($volumeOfWall*$rho*$g)/$numNodes];#SELF-WEIGHT
load 7 0.0 [expr ($volumeOfWall*$rho*$g)/$numNodes];#SELF-WEIGHT
load 8 0.0 [expr ($volumeOfWall*$rho*$g)/$numNodes];#SELF-WEIGHT
load 9 0.0 [expr ($volumeOfWall*$rho*$g)/$numNodes];#SELF-WEIGHT
load 10 0.0 [expr ($volumeOfWall*$rho*$g)/$numNodes];#SELF-WEIGHT
load 11 0.0 [expr ($volumeOfWall*$rho*$g)/$numNodes];#SELF-WEIGHT
load 12 0.0 [expr ($volumeOfWall*$rho*$g)/$numNodes];#SELF-WEIGHT
load 13 0.0 [expr ($volumeOfWall*$rho*$g)/$numNodes];#SELF-WEIGHT
load 14 0.0 [expr ($volumeOfWall*$rho*$g)/$numNodes];#SELF-WEIGHT
load 15 0.0 [expr ($volumeOfWall*$rho*$g)/$numNodes];#SELF-WEIGHT
load 16 0.0 [expr ($volumeOfWall*$rho*$g)/$numNodes];#SELF-WEIGHT
load 17 0.0 [expr ($volumeOfWall*$rho*$g)/$numNodes];#SELF-WEIGHT
load 18 0.0 [expr ($volumeOfWall*$rho*$g)/$numNodes];#SELF-WEIGHT
load 19 0.0 [expr ($volumeOfWall*$rho*$g)/$numNodes];#SELF-WEIGHT
load 20 0.0 [expr ($volumeOfWall*$rho*$g)/$numNodes];#SELF-WEIGHT
# ... 115 like lines cut
} 

# specify the solver
constraints Plain
system UmfPack
test NormDispIncr 1.0e-3 30
algorithm ModifiedNewton
numberer RCM
integrator LoadControl 1
analysis Static
analyze 1

puts "gravity is done."



lappend EDPNodes 85
lappend EDPNodes 86
lappend EDPNodes 93
lappend EDPNodes 100
lappend EDPNodes 107
lappend EDPNodes 114
lappend EDPNodes 121
lappend EDPNodes 128
lappend EDPNodes 135
eval "recorder Node -file $outPutFileName -time -node $EDPNodes -dof 1 reaction"

system UmfPack 
constraints Penalty 1.0e10 1.0e10 
test NormDispIncr 1.0e-4 50 0 
algorithm Newton 
numberer RCM 
integrator LoadControl 1. 
analysis Static 
for {set i 0} {$i < [expr $nPts]} {incr i 1} { 
set ok [analyze 1] 
if {$ok != 0} { 
test NormDispIncr 1.0e-3 1000 0 
algorithm Newton -initial 
set ok [analyze 1] 
test NormDispIncr 1.0e-4 500 0 
algorithm Newton 
} 
if {$ok != 0} {  
set i [expr $nPts]; 
} 
} 
puts "cyclic is done."

remove recorders 
wipe  
