wipe;
model testUniaxial;
set matTag 1;
set strainHistory {1.1653237e-05 -0.0012111027 -0.0034530228 -0.0038312266 -0.0022439691 0.00013641067 0.0018047885 0.0018205114 0.00061775278 -0.0014364367 -0.0038472861 -0.006034201 -0.0074700639 -0.0076017305 -0.0059906528 -0.0067987917 -0.0077295657 -0.0067900098 -0.0050316751 -0.0027501008 -0.0003276465 0.0018291002 0.0033588696 0.0040038093 0.002389384 0.0030057821 0.0037015961 0.0038909873 
set fileOut "results.out";
set filePred "hysteresis.txt"
set out [open $fileOut w];
set out2 [open $filePred w];
uniaxialMaterial Steel02 1 $fy $E $b 20.0 $cR1 $cR2 $a1  1.0 $a3 1.0 0.0;
uniaxialTest $matTag;
set strain 0.0;
set count 1;
set iTime 0;
set strain [expr $strain];
strainUniaxialTest $strain;
set stress [stressUniaxialTest];
set tangent [tangUniaxialTest];
set iTime [expr $iTime+1];
puts $out2 "$strain $stress";
foreach strainExtremeVal $strainHistory {
		set numIncr 1;
		set strainIncr [expr ($strainExtremeVal - $strain)/$numIncr];
		for {set i 0} {$i < $numIncr} {incr i 1} {
			set strain [expr $strain+$strainIncr];
			strainUniaxialTest $strain;
			set stress [stressUniaxialTest];
			set tangent [tangUniaxialTest];
			set iTime [expr $iTime+1];
			puts $out2 "$strain $stress";
			puts $out "$stress";
		}
}
close $out;
close $out2;
puts "MATERIAL TESTER RAN SUCCESSFULLY!";
wipe;
